* NGSPICE file created from EF_AMP3V3.ext - technology: sky130A

.subckt EF_AMP3V3 VOUT VIP EN VIN VDD VSS
X0 VOUT.t338 pdrv1.t2 VDD.t368 VDD.t33 sky130_fd_pr__pfet_g5v0d10v5 ad=0.145 pd=1.29 as=0.145 ps=1.29 w=1 l=0.5
X1 VOUT.t337 pdrv1.t3 VDD.t367 VDD.t80 sky130_fd_pr__pfet_g5v0d10v5 ad=0.145 pd=1.29 as=0.145 ps=1.29 w=1 l=0.5
X2 VOUT.t38 ndrv.t0 VSS.t137 VSS.t23 sky130_fd_pr__nfet_g5v0d10v5 ad=0.145 pd=1.29 as=0.145 ps=1.29 w=1 l=0.5
X3 VOUT.t336 pdrv1.t4 VDD.t366 VDD.t50 sky130_fd_pr__pfet_g5v0d10v5 ad=0.145 pd=1.29 as=0.145 ps=1.29 w=1 l=0.5
X4 VDD.t370 pdrv2.t0 VOUT.t342 VDD.t133 sky130_fd_pr__pfet_g5v0d10v5 ad=0.145 pd=1.29 as=0.145 ps=1.29 w=1 l=0.5
X5 VOUT.t335 pdrv1.t5 VDD.t365 VDD.t6 sky130_fd_pr__pfet_g5v0d10v5 ad=0.29 pd=2.58 as=0.145 ps=1.29 w=1 l=0.5
X6 VDD.t152 pdrv2.t1 VOUT.t126 VDD.t19 sky130_fd_pr__pfet_g5v0d10v5 ad=0.145 pd=1.29 as=0.145 ps=1.29 w=1 l=0.5
X7 VDD.t153 pdrv2.t2 VOUT.t127 VDD.t27 sky130_fd_pr__pfet_g5v0d10v5 ad=0.145 pd=1.29 as=0.145 ps=1.29 w=1 l=0.5
X8 VDD.t162 a_n1922_640# pdrv1.t1 VDD.t161 sky130_fd_pr__pfet_g5v0d10v5 ad=0.145 pd=1.29 as=0.29 ps=2.58 w=1 l=0.5
X9 VOUT.t334 pdrv1.t6 VDD.t364 VDD.t83 sky130_fd_pr__pfet_g5v0d10v5 ad=0.145 pd=1.29 as=0.145 ps=1.29 w=1 l=0.5
X10 VDD.t363 pdrv1.t7 VOUT.t333 VDD.t47 sky130_fd_pr__pfet_g5v0d10v5 ad=0.145 pd=1.29 as=0.145 ps=1.29 w=1 l=0.5
X11 VSS.t136 ndrv.t1 VOUT.t382 VSS.t15 sky130_fd_pr__nfet_g5v0d10v5 ad=0.145 pd=1.29 as=0.145 ps=1.29 w=1 l=0.5
X12 VOUT.t88 pdrv2.t3 VDD.t109 VDD.t15 sky130_fd_pr__pfet_g5v0d10v5 ad=0.145 pd=1.29 as=0.145 ps=1.29 w=1 l=0.5
X13 VOUT.t332 pdrv1.t8 VDD.t362 VDD.t120 sky130_fd_pr__pfet_g5v0d10v5 ad=0.145 pd=1.29 as=0.145 ps=1.29 w=1 l=0.5
X14 VOUT.t418 pdrv2.t4 VDD.t419 VDD.t72 sky130_fd_pr__pfet_g5v0d10v5 ad=0.145 pd=1.29 as=0.145 ps=1.29 w=1 l=0.5
X15 VDD.t108 pdrv2.t5 VOUT.t87 VDD.t24 sky130_fd_pr__pfet_g5v0d10v5 ad=0.145 pd=1.29 as=0.29 ps=2.58 w=1 l=0.5
X16 VDD.t414 pdrv2.t6 VOUT.t406 VDD.t61 sky130_fd_pr__pfet_g5v0d10v5 ad=0.145 pd=1.29 as=0.145 ps=1.29 w=1 l=0.5
X17 VOUT.t472 ndrv.t2 VSS.t135 VSS.t15 sky130_fd_pr__nfet_g5v0d10v5 ad=0.145 pd=1.29 as=0.145 ps=1.29 w=1 l=0.5
X18 VOUT.t478 pdrv2.t7 VDD.t436 VDD.t88 sky130_fd_pr__pfet_g5v0d10v5 ad=0.145 pd=1.29 as=0.145 ps=1.29 w=1 l=0.5
X19 VDD.t361 pdrv1.t9 VOUT.t331 VDD.t117 sky130_fd_pr__pfet_g5v0d10v5 ad=0.145 pd=1.29 as=0.145 ps=1.29 w=1 l=0.5
X20 VOUT.t17 pdrv2.t8 VDD.t14 VDD.t13 sky130_fd_pr__pfet_g5v0d10v5 ad=0.145 pd=1.29 as=0.145 ps=1.29 w=1 l=0.5
X21 VOUT.t464 pdrv2.t9 VDD.t434 VDD.t70 sky130_fd_pr__pfet_g5v0d10v5 ad=0.145 pd=1.29 as=0.145 ps=1.29 w=1 l=0.5
X22 VDD.t360 pdrv1.t10 VOUT.t330 VDD.t4 sky130_fd_pr__pfet_g5v0d10v5 ad=0.145 pd=1.29 as=0.145 ps=1.29 w=1 l=0.5
X23 VSS.t134 ndrv.t3 VOUT.t467 VSS.t23 sky130_fd_pr__nfet_g5v0d10v5 ad=0.145 pd=1.29 as=0.145 ps=1.29 w=1 l=0.5
X24 VOUT.t329 pdrv1.t11 VDD.t359 VDD.t115 sky130_fd_pr__pfet_g5v0d10v5 ad=0.145 pd=1.29 as=0.145 ps=1.29 w=1 l=0.5
X25 VDD.t151 pdrv2.t10 VOUT.t125 VDD.t143 sky130_fd_pr__pfet_g5v0d10v5 ad=0.145 pd=1.29 as=0.145 ps=1.29 w=1 l=0.5
X26 VOUT.t328 pdrv1.t12 VDD.t358 VDD.t135 sky130_fd_pr__pfet_g5v0d10v5 ad=0.145 pd=1.29 as=0.145 ps=1.29 w=1 l=0.5
X27 VSS.t133 ndrv.t4 VOUT.t476 VSS.t23 sky130_fd_pr__nfet_g5v0d10v5 ad=0.145 pd=1.29 as=0.145 ps=1.29 w=1 l=0.5
X28 nbias.t7 nbias.t6 VSS.t9 VSS.t5 sky130_fd_pr__nfet_g5v0d10v5 ad=0.145 pd=1.29 as=0.145 ps=1.29 w=1 l=0.5
X29 VDD.t46 pdrv2.t11 VOUT.t37 VDD.t45 sky130_fd_pr__pfet_g5v0d10v5 ad=0.145 pd=1.29 as=0.145 ps=1.29 w=1 l=0.5
X30 VOUT.t397 pdrv2.t12 VDD.t411 VDD.t76 sky130_fd_pr__pfet_g5v0d10v5 ad=0.145 pd=1.29 as=0.145 ps=1.29 w=1 l=0.5
X31 VOUT.t327 pdrv1.t13 VDD.t357 VDD.t91 sky130_fd_pr__pfet_g5v0d10v5 ad=0.145 pd=1.29 as=0.145 ps=1.29 w=1 l=0.5
X32 VDD.t376 pdrv2.t13 VOUT.t352 VDD.t133 sky130_fd_pr__pfet_g5v0d10v5 ad=0.145 pd=1.29 as=0.145 ps=1.29 w=1 l=0.5
X33 VOUT.t326 pdrv1.t14 VDD.t356 VDD.t78 sky130_fd_pr__pfet_g5v0d10v5 ad=0.145 pd=1.29 as=0.145 ps=1.29 w=1 l=0.5
X34 VOUT.t2 ndrv.t5 VSS.t132 VSS.t15 sky130_fd_pr__nfet_g5v0d10v5 ad=0.145 pd=1.29 as=0.145 ps=1.29 w=1 l=0.5
X35 VDD.t355 pdrv1.t15 VOUT.t325 VDD.t105 sky130_fd_pr__pfet_g5v0d10v5 ad=0.145 pd=1.29 as=0.145 ps=1.29 w=1 l=0.5
X36 VDD.t354 pdrv1.t16 VOUT.t324 VDD.t93 sky130_fd_pr__pfet_g5v0d10v5 ad=0.145 pd=1.29 as=0.145 ps=1.29 w=1 l=0.5
X37 VOUT.t383 ndrv.t6 VSS.t131 VSS.t15 sky130_fd_pr__nfet_g5v0d10v5 ad=0.145 pd=1.29 as=0.145 ps=1.29 w=1 l=0.5
X38 VDD.t410 pdrv2.t14 VOUT.t395 VDD.t11 sky130_fd_pr__pfet_g5v0d10v5 ad=0.145 pd=1.29 as=0.145 ps=1.29 w=1 l=0.5
X39 VOUT.t97 ndrv.t7 VSS.t130 VSS.t17 sky130_fd_pr__nfet_g5v0d10v5 ad=0.145 pd=1.29 as=0.145 ps=1.29 w=1 l=0.5
X40 VOUT.t323 pdrv1.t17 VDD.t353 VDD.t80 sky130_fd_pr__pfet_g5v0d10v5 ad=0.145 pd=1.29 as=0.145 ps=1.29 w=1 l=0.5
X41 VDD.t154 pdrv2.t15 VOUT.t129 VDD.t129 sky130_fd_pr__pfet_g5v0d10v5 ad=0.145 pd=1.29 as=0.145 ps=1.29 w=1 l=0.5
X42 VOUT.t322 pdrv1.t18 VDD.t352 VDD.t50 sky130_fd_pr__pfet_g5v0d10v5 ad=0.145 pd=1.29 as=0.145 ps=1.29 w=1 l=0.5
X43 VDD.t429 pdrv2.t16 VOUT.t438 VDD.t19 sky130_fd_pr__pfet_g5v0d10v5 ad=0.145 pd=1.29 as=0.145 ps=1.29 w=1 l=0.5
X44 VDD.t409 pdrv2.t17 VOUT.t394 VDD.t27 sky130_fd_pr__pfet_g5v0d10v5 ad=0.145 pd=1.29 as=0.145 ps=1.29 w=1 l=0.5
X45 VOUT.t18 pdrv2.t18 VDD.t16 VDD.t15 sky130_fd_pr__pfet_g5v0d10v5 ad=0.145 pd=1.29 as=0.145 ps=1.29 w=1 l=0.5
X46 VDD.t351 pdrv1.t19 VOUT.t321 VDD.t47 sky130_fd_pr__pfet_g5v0d10v5 ad=0.145 pd=1.29 as=0.145 ps=1.29 w=1 l=0.5
X47 VDD.t350 pdrv1.t20 VOUT.t320 VDD.t29 sky130_fd_pr__pfet_g5v0d10v5 ad=0.145 pd=1.29 as=0.145 ps=1.29 w=1 l=0.5
X48 VOUT.t319 pdrv1.t21 VDD.t349 VDD.t120 sky130_fd_pr__pfet_g5v0d10v5 ad=0.145 pd=1.29 as=0.145 ps=1.29 w=1 l=0.5
X49 VOUT.t340 pdrv2.t19 VDD.t369 VDD.t17 sky130_fd_pr__pfet_g5v0d10v5 ad=0.145 pd=1.29 as=0.145 ps=1.29 w=1 l=0.5
X50 VOUT.t350 pdrv2.t20 VDD.t374 VDD.t72 sky130_fd_pr__pfet_g5v0d10v5 ad=0.145 pd=1.29 as=0.145 ps=1.29 w=1 l=0.5
X51 VDD.t448 pdrv2.t21 VOUT.t494 VDD.t61 sky130_fd_pr__pfet_g5v0d10v5 ad=0.145 pd=1.29 as=0.145 ps=1.29 w=1 l=0.5
X52 VOUT.t109 pdrv2.t22 VDD.t132 VDD.t88 sky130_fd_pr__pfet_g5v0d10v5 ad=0.145 pd=1.29 as=0.145 ps=1.29 w=1 l=0.5
X53 VOUT.t413 pdrv2.t23 VDD.t416 VDD.t13 sky130_fd_pr__pfet_g5v0d10v5 ad=0.145 pd=1.29 as=0.145 ps=1.29 w=1 l=0.5
X54 VOUT.t318 pdrv1.t22 VDD.t344 VDD.t33 sky130_fd_pr__pfet_g5v0d10v5 ad=0.145 pd=1.29 as=0.145 ps=1.29 w=1 l=0.5
X55 VSS.t129 ndrv.t8 VOUT.t339 VSS.t17 sky130_fd_pr__nfet_g5v0d10v5 ad=0.145 pd=1.29 as=0.145 ps=1.29 w=1 l=0.5
X56 VDD.t348 pdrv1.t23 VOUT.t317 VDD.t4 sky130_fd_pr__pfet_g5v0d10v5 ad=0.145 pd=1.29 as=0.145 ps=1.29 w=1 l=0.5
X57 VOUT.t316 pdrv1.t24 VDD.t347 VDD.t115 sky130_fd_pr__pfet_g5v0d10v5 ad=0.145 pd=1.29 as=0.145 ps=1.29 w=1 l=0.5
X58 VDD.t346 pdrv1.t25 VOUT.t315 VDD.t98 sky130_fd_pr__pfet_g5v0d10v5 ad=0.145 pd=1.29 as=0.145 ps=1.29 w=1 l=0.5
X59 VSS.t128 ndrv.t9 VOUT.t469 VSS.t23 sky130_fd_pr__nfet_g5v0d10v5 ad=0.145 pd=1.29 as=0.145 ps=1.29 w=1 l=0.5
X60 VOUT.t314 pdrv1.t26 VDD.t345 VDD.t2 sky130_fd_pr__pfet_g5v0d10v5 ad=0.145 pd=1.29 as=0.145 ps=1.29 w=1 l=0.5
X61 VOUT.t29 pdrv2.t24 VDD.t41 VDD.t0 sky130_fd_pr__pfet_g5v0d10v5 ad=0.145 pd=1.29 as=0.145 ps=1.29 w=1 l=0.5
X62 VDD.t343 pdrv1.t27 VOUT.t313 VDD.t24 sky130_fd_pr__pfet_g5v0d10v5 ad=0.145 pd=1.29 as=0.29 ps=2.58 w=1 l=0.5
X63 VDD.t397 pdrv2.t25 VOUT.t377 VDD.t143 sky130_fd_pr__pfet_g5v0d10v5 ad=0.145 pd=1.29 as=0.145 ps=1.29 w=1 l=0.5
X64 VOUT.t312 pdrv1.t28 VDD.t342 VDD.t83 sky130_fd_pr__pfet_g5v0d10v5 ad=0.145 pd=1.29 as=0.145 ps=1.29 w=1 l=0.5
X65 VDD.t426 pdrv2.t26 VOUT.t428 VDD.t8 sky130_fd_pr__pfet_g5v0d10v5 ad=0.145 pd=1.29 as=0.145 ps=1.29 w=1 l=0.5
X66 VSS.t127 ndrv.t10 VOUT.t456 VSS.t17 sky130_fd_pr__nfet_g5v0d10v5 ad=0.145 pd=1.29 as=0.145 ps=1.29 w=1 l=0.5
X67 VOUT.t311 pdrv1.t29 VDD.t341 VDD.t91 sky130_fd_pr__pfet_g5v0d10v5 ad=0.145 pd=1.29 as=0.145 ps=1.29 w=1 l=0.5
X68 VOUT.t310 pdrv1.t30 VDD.t340 VDD.t70 sky130_fd_pr__pfet_g5v0d10v5 ad=0.145 pd=1.29 as=0.145 ps=1.29 w=1 l=0.5
X69 VOUT.t415 pdrv2.t27 VDD.t418 VDD.t76 sky130_fd_pr__pfet_g5v0d10v5 ad=0.145 pd=1.29 as=0.145 ps=1.29 w=1 l=0.5
X70 VSS.t126 ndrv.t11 VOUT.t455 VSS.t23 sky130_fd_pr__nfet_g5v0d10v5 ad=0.145 pd=1.29 as=0.145 ps=1.29 w=1 l=0.5
X71 VOUT.t309 pdrv1.t31 VDD.t339 VDD.t78 sky130_fd_pr__pfet_g5v0d10v5 ad=0.145 pd=1.29 as=0.145 ps=1.29 w=1 l=0.5
X72 VDD.t423 pdrv2.t28 VOUT.t423 VDD.t133 sky130_fd_pr__pfet_g5v0d10v5 ad=0.145 pd=1.29 as=0.145 ps=1.29 w=1 l=0.5
X73 VOUT.t461 ndrv.t12 VSS.t125 VSS.t23 sky130_fd_pr__nfet_g5v0d10v5 ad=0.145 pd=1.29 as=0.145 ps=1.29 w=1 l=0.5
X74 VOUT.t42 pdrv2.t29 VDD.t52 VDD.t15 sky130_fd_pr__pfet_g5v0d10v5 ad=0.145 pd=1.29 as=0.145 ps=1.29 w=1 l=0.5
X75 VDD.t338 pdrv1.t32 VOUT.t308 VDD.t29 sky130_fd_pr__pfet_g5v0d10v5 ad=0.145 pd=1.29 as=0.145 ps=1.29 w=1 l=0.5
X76 VDD.t337 pdrv1.t33 VOUT.t307 VDD.t45 sky130_fd_pr__pfet_g5v0d10v5 ad=0.145 pd=1.29 as=0.145 ps=1.29 w=1 l=0.5
X77 a_n3090_640# VIN.t0 vcomn2 VSS.t1 sky130_fd_pr__nfet_03v3_nvt ad=0.29 pd=2.58 as=0.29 ps=2.58 w=1 l=0.5
X78 VSS.t124 ndrv.t13 VOUT.t468 VSS.t23 sky130_fd_pr__nfet_g5v0d10v5 ad=0.145 pd=1.29 as=0.145 ps=1.29 w=1 l=0.5
X79 VDD.t420 pdrv2.t30 VOUT.t419 VDD.t187 sky130_fd_pr__pfet_g5v0d10v5 ad=0.145 pd=1.29 as=0.145 ps=1.29 w=1 l=0.5
X80 VOUT.t306 pdrv1.t34 VDD.t336 VDD.t120 sky130_fd_pr__pfet_g5v0d10v5 ad=0.145 pd=1.29 as=0.145 ps=1.29 w=1 l=0.5
X81 VDD.t335 pdrv1.t35 VOUT.t305 VDD.t19 sky130_fd_pr__pfet_g5v0d10v5 ad=0.145 pd=1.29 as=0.145 ps=1.29 w=1 l=0.5
X82 VDD.t334 pdrv1.t36 VOUT.t304 VDD.t27 sky130_fd_pr__pfet_g5v0d10v5 ad=0.145 pd=1.29 as=0.145 ps=1.29 w=1 l=0.5
X83 pdrv1.t1 a_n1922_640# VDD.t160 VDD.t159 sky130_fd_pr__pfet_g5v0d10v5 ad=0.29 pd=2.58 as=0.145 ps=1.29 w=1 l=0.5
X84 VOUT.t12 pdrv2.t31 VDD.t10 VDD.t0 sky130_fd_pr__pfet_g5v0d10v5 ad=0.145 pd=1.29 as=0.145 ps=1.29 w=1 l=0.5
X85 a_n1922_640# VIN.t1 vcomn1 VSS.t1 sky130_fd_pr__nfet_g5v0d10v5 ad=0.29 pd=2.58 as=0.29 ps=2.58 w=1 l=0.5
X86 VDD.t40 pbias vcomp VDD.t39 sky130_fd_pr__pfet_g5v0d10v5 ad=0.145 pd=1.29 as=0.29 ps=2.58 w=1 l=0.5
X87 VDD.t333 pdrv1.t37 VOUT.t303 VDD.t98 sky130_fd_pr__pfet_g5v0d10v5 ad=0.145 pd=1.29 as=0.145 ps=1.29 w=1 l=0.5
X88 VSS.t123 ndrv.t14 VOUT.t477 VSS.t15 sky130_fd_pr__nfet_g5v0d10v5 ad=0.145 pd=1.29 as=0.145 ps=1.29 w=1 l=0.5
X89 VOUT.t302 pdrv1.t38 VDD.t332 VDD.t2 sky130_fd_pr__pfet_g5v0d10v5 ad=0.145 pd=1.29 as=0.145 ps=1.29 w=1 l=0.5
X90 VOUT.t301 pdrv1.t39 VDD.t331 VDD.t80 sky130_fd_pr__pfet_g5v0d10v5 ad=0.145 pd=1.29 as=0.145 ps=1.29 w=1 l=0.5
X91 VOUT.t300 pdrv1.t40 VDD.t330 VDD.t50 sky130_fd_pr__pfet_g5v0d10v5 ad=0.145 pd=1.29 as=0.145 ps=1.29 w=1 l=0.5
X92 VOUT.t299 pdrv1.t41 VDD.t329 VDD.t72 sky130_fd_pr__pfet_g5v0d10v5 ad=0.145 pd=1.29 as=0.145 ps=1.29 w=1 l=0.5
X93 VSS.t122 ndrv.t15 VOUT.t480 VSS.t17 sky130_fd_pr__nfet_g5v0d10v5 ad=0.145 pd=1.29 as=0.145 ps=1.29 w=1 l=0.5
X94 VOUT.t298 pdrv1.t42 VDD.t328 VDD.t135 sky130_fd_pr__pfet_g5v0d10v5 ad=0.145 pd=1.29 as=0.145 ps=1.29 w=1 l=0.5
X95 VDD.t327 pdrv1.t43 VOUT.t297 VDD.t61 sky130_fd_pr__pfet_g5v0d10v5 ad=0.145 pd=1.29 as=0.145 ps=1.29 w=1 l=0.5
X96 VDD.t407 pdrv2.t32 VOUT.t391 VDD.t143 sky130_fd_pr__pfet_g5v0d10v5 ad=0.145 pd=1.29 as=0.145 ps=1.29 w=1 l=0.5
X97 VOUT.t296 pdrv1.t44 VDD.t326 VDD.t88 sky130_fd_pr__pfet_g5v0d10v5 ad=0.145 pd=1.29 as=0.145 ps=1.29 w=1 l=0.5
X98 VSS.t121 ndrv.t16 VOUT.t475 VSS.t23 sky130_fd_pr__nfet_g5v0d10v5 ad=0.145 pd=1.29 as=0.29 ps=2.58 w=1 l=0.5
X99 VOUT.t295 pdrv1.t45 VDD.t325 VDD.t13 sky130_fd_pr__pfet_g5v0d10v5 ad=0.145 pd=1.29 as=0.145 ps=1.29 w=1 l=0.5
X100 VDD.t324 pdrv1.t46 VOUT.t294 VDD.t47 sky130_fd_pr__pfet_g5v0d10v5 ad=0.145 pd=1.29 as=0.145 ps=1.29 w=1 l=0.5
X101 VDD.t421 pdrv2.t33 VOUT.t421 VDD.t133 sky130_fd_pr__pfet_g5v0d10v5 ad=0.145 pd=1.29 as=0.145 ps=1.29 w=1 l=0.5
X102 VSS.t120 ndrv.t17 VOUT.t457 VSS.t17 sky130_fd_pr__nfet_g5v0d10v5 ad=0.145 pd=1.29 as=0.145 ps=1.29 w=1 l=0.5
X103 VOUT.t293 pdrv1.t47 VDD.t323 VDD.t91 sky130_fd_pr__pfet_g5v0d10v5 ad=0.145 pd=1.29 as=0.145 ps=1.29 w=1 l=0.5
X104 VOUT.t1 ndrv.t18 VSS.t119 VSS.t23 sky130_fd_pr__nfet_g5v0d10v5 ad=0.145 pd=1.29 as=0.145 ps=1.29 w=1 l=0.5
X105 VOUT.t292 pdrv1.t48 VDD.t322 VDD.t78 sky130_fd_pr__pfet_g5v0d10v5 ad=0.145 pd=1.29 as=0.145 ps=1.29 w=1 l=0.5
X106 VSS.t118 ndrv.t19 VOUT.t448 VSS.t15 sky130_fd_pr__nfet_g5v0d10v5 ad=0.145 pd=1.29 as=0.145 ps=1.29 w=1 l=0.5
X107 VDD.t321 pdrv1.t49 VOUT.t291 VDD.t93 sky130_fd_pr__pfet_g5v0d10v5 ad=0.145 pd=1.29 as=0.145 ps=1.29 w=1 l=0.5
X108 VDD.t12 pdrv2.t34 VOUT.t13 VDD.t11 sky130_fd_pr__pfet_g5v0d10v5 ad=0.145 pd=1.29 as=0.145 ps=1.29 w=1 l=0.5
X109 VOUT.t454 ndrv.t20 VSS.t117 VSS.t17 sky130_fd_pr__nfet_g5v0d10v5 ad=0.145 pd=1.29 as=0.145 ps=1.29 w=1 l=0.5
X110 VDD.t417 pdrv2.t35 VOUT.t414 VDD.t129 sky130_fd_pr__pfet_g5v0d10v5 ad=0.145 pd=1.29 as=0.145 ps=1.29 w=1 l=0.5
X111 VOUT.t401 ndrv.t21 VSS.t116 VSS.t23 sky130_fd_pr__nfet_g5v0d10v5 ad=0.145 pd=1.29 as=0.145 ps=1.29 w=1 l=0.5
X112 VDD.t111 pdrv2.t36 VOUT.t90 VDD.t110 sky130_fd_pr__pfet_g5v0d10v5 ad=0.145 pd=1.29 as=0.145 ps=1.29 w=1 l=0.5
X113 VOUT.t460 ndrv.t22 VSS.t115 VSS.t23 sky130_fd_pr__nfet_g5v0d10v5 ad=0.29 pd=2.58 as=0.145 ps=1.29 w=1 l=0.5
X114 VOUT.t483 pdrv2.t37 VDD.t437 VDD.t15 sky130_fd_pr__pfet_g5v0d10v5 ad=0.145 pd=1.29 as=0.145 ps=1.29 w=1 l=0.5
X115 a_n551_n345# VIN.t2 vcomp VDD.t446 sky130_fd_pr__pfet_g5v0d10v5 ad=0.29 pd=2.58 as=0.145 ps=1.29 w=1 l=0.5
X116 VOUT.t290 pdrv1.t50 VDD.t320 VDD.t76 sky130_fd_pr__pfet_g5v0d10v5 ad=0.145 pd=1.29 as=0.145 ps=1.29 w=1 l=0.5
X117 VSS.t114 ndrv.t23 VOUT.t459 VSS.t15 sky130_fd_pr__nfet_g5v0d10v5 ad=0.145 pd=1.29 as=0.145 ps=1.29 w=1 l=0.5
X118 VDD.t319 pdrv1.t51 VOUT.t289 VDD.t4 sky130_fd_pr__pfet_g5v0d10v5 ad=0.145 pd=1.29 as=0.145 ps=1.29 w=1 l=0.5
X119 VOUT.t288 pdrv1.t52 VDD.t318 VDD.t115 sky130_fd_pr__pfet_g5v0d10v5 ad=0.145 pd=1.29 as=0.145 ps=1.29 w=1 l=0.5
X120 VDD.t317 pdrv1.t53 VOUT.t287 VDD.t29 sky130_fd_pr__pfet_g5v0d10v5 ad=0.145 pd=1.29 as=0.145 ps=1.29 w=1 l=0.5
X121 VOUT.t458 ndrv.t24 VSS.t113 VSS.t23 sky130_fd_pr__nfet_g5v0d10v5 ad=0.145 pd=1.29 as=0.145 ps=1.29 w=1 l=0.5
X122 VOUT.t427 pdrv2.t38 VDD.t425 VDD.t17 sky130_fd_pr__pfet_g5v0d10v5 ad=0.145 pd=1.29 as=0.145 ps=1.29 w=1 l=0.5
X123 VOUT.t449 ndrv.t25 VSS.t112 VSS.t15 sky130_fd_pr__nfet_g5v0d10v5 ad=0.145 pd=1.29 as=0.145 ps=1.29 w=1 l=0.5
X124 VSS.t111 ndrv.t26 VOUT.t403 VSS.t17 sky130_fd_pr__nfet_g5v0d10v5 ad=0.145 pd=1.29 as=0.145 ps=1.29 w=1 l=0.5
X125 VOUT.t484 ndrv.t27 VSS.t110 VSS.t15 sky130_fd_pr__nfet_g5v0d10v5 ad=0.145 pd=1.29 as=0.145 ps=1.29 w=1 l=0.5
X126 VOUT.t381 pdrv2.t39 VDD.t400 VDD.t42 sky130_fd_pr__pfet_g5v0d10v5 ad=0.145 pd=1.29 as=0.145 ps=1.29 w=1 l=0.5
X127 VOUT.t447 ndrv.t28 VSS.t109 VSS.t15 sky130_fd_pr__nfet_g5v0d10v5 ad=0.145 pd=1.29 as=0.145 ps=1.29 w=1 l=0.5
X128 VOUT.t466 pdrv2.t40 VDD.t435 VDD.t0 sky130_fd_pr__pfet_g5v0d10v5 ad=0.145 pd=1.29 as=0.145 ps=1.29 w=1 l=0.5
X129 vcomp pbias VDD.t38 VDD.t37 sky130_fd_pr__pfet_g5v0d10v5 ad=0.29 pd=2.58 as=0.145 ps=1.29 w=1 l=0.5
X130 VDD.t316 pdrv1.t54 VOUT.t286 VDD.t98 sky130_fd_pr__pfet_g5v0d10v5 ad=0.145 pd=1.29 as=0.145 ps=1.29 w=1 l=0.5
X131 VOUT.t285 pdrv1.t55 VDD.t315 VDD.t135 sky130_fd_pr__pfet_g5v0d10v5 ad=0.145 pd=1.29 as=0.145 ps=1.29 w=1 l=0.5
X132 VDD.t427 pdrv2.t41 VOUT.t429 VDD.t21 sky130_fd_pr__pfet_g5v0d10v5 ad=0.145 pd=1.29 as=0.145 ps=1.29 w=1 l=0.5
X133 VSS.t108 ndrv.t29 VOUT.t453 VSS.t23 sky130_fd_pr__nfet_g5v0d10v5 ad=0.145 pd=1.29 as=0.145 ps=1.29 w=1 l=0.5
X134 VOUT.t284 pdrv1.t56 VDD.t314 VDD.t2 sky130_fd_pr__pfet_g5v0d10v5 ad=0.145 pd=1.29 as=0.145 ps=1.29 w=1 l=0.5
X135 VOUT.t452 ndrv.t30 VSS.t107 VSS.t15 sky130_fd_pr__nfet_g5v0d10v5 ad=0.145 pd=1.29 as=0.145 ps=1.29 w=1 l=0.5
X136 VDD.t313 pdrv1.t57 VOUT.t283 VDD.t24 sky130_fd_pr__pfet_g5v0d10v5 ad=0.145 pd=1.29 as=0.29 ps=2.58 w=1 l=0.5
X137 VSS.t106 ndrv.t31 VOUT.t451 VSS.t17 sky130_fd_pr__nfet_g5v0d10v5 ad=0.145 pd=1.29 as=0.29 ps=2.58 w=1 l=0.5
X138 VDD.t87 pdrv2.t42 VOUT.t70 VDD.t11 sky130_fd_pr__pfet_g5v0d10v5 ad=0.145 pd=1.29 as=0.145 ps=1.29 w=1 l=0.5
X139 VDD.t415 pdrv2.t43 VOUT.t412 VDD.t8 sky130_fd_pr__pfet_g5v0d10v5 ad=0.145 pd=1.29 as=0.145 ps=1.29 w=1 l=0.5
X140 VSS.t105 ndrv.t32 VOUT.t450 VSS.t23 sky130_fd_pr__nfet_g5v0d10v5 ad=0.145 pd=1.29 as=0.145 ps=1.29 w=1 l=0.5
X141 VOUT.t282 pdrv1.t58 VDD.t312 VDD.t70 sky130_fd_pr__pfet_g5v0d10v5 ad=0.145 pd=1.29 as=0.145 ps=1.29 w=1 l=0.5
X142 VDD.t131 pdrv2.t44 VOUT.t107 VDD.t129 sky130_fd_pr__pfet_g5v0d10v5 ad=0.145 pd=1.29 as=0.145 ps=1.29 w=1 l=0.5
X143 VOUT.t482 ndrv.t33 VSS.t104 VSS.t23 sky130_fd_pr__nfet_g5v0d10v5 ad=0.145 pd=1.29 as=0.145 ps=1.29 w=1 l=0.5
X144 VDD.t311 pdrv1.t59 VOUT.t281 VDD.t93 sky130_fd_pr__pfet_g5v0d10v5 ad=0.145 pd=1.29 as=0.145 ps=1.29 w=1 l=0.5
X145 VOUT.t135 ndrv.t34 VSS.t103 VSS.t17 sky130_fd_pr__nfet_g5v0d10v5 ad=0.145 pd=1.29 as=0.145 ps=1.29 w=1 l=0.5
X146 VOUT.t280 pdrv1.t60 VDD.t310 VDD.t120 sky130_fd_pr__pfet_g5v0d10v5 ad=0.145 pd=1.29 as=0.145 ps=1.29 w=1 l=0.5
X147 VOUT.t425 pdrv2.t45 VDD.t424 VDD.t6 sky130_fd_pr__pfet_g5v0d10v5 ad=0.29 pd=2.58 as=0.145 ps=1.29 w=1 l=0.5
X148 VDD.t306 pdrv1.t61 VOUT.t279 VDD.t143 sky130_fd_pr__pfet_g5v0d10v5 ad=0.145 pd=1.29 as=0.145 ps=1.29 w=1 l=0.5
X149 VOUT.t433 ndrv.t35 VSS.t102 VSS.t17 sky130_fd_pr__nfet_g5v0d10v5 ad=0.145 pd=1.29 as=0.145 ps=1.29 w=1 l=0.5
X150 VOUT.t518 ndrv.t36 VSS.t101 VSS.t17 sky130_fd_pr__nfet_g5v0d10v5 ad=0.29 pd=2.58 as=0.145 ps=1.29 w=1 l=0.5
X151 VSS.t100 ndrv.t37 VOUT.t446 VSS.t23 sky130_fd_pr__nfet_g5v0d10v5 ad=0.145 pd=1.29 as=0.145 ps=1.29 w=1 l=0.5
X152 VDD.t309 pdrv1.t62 VOUT.t278 VDD.t45 sky130_fd_pr__pfet_g5v0d10v5 ad=0.145 pd=1.29 as=0.145 ps=1.29 w=1 l=0.5
X153 VOUT.t363 pdrv2.t46 VDD.t383 VDD.t17 sky130_fd_pr__pfet_g5v0d10v5 ad=0.145 pd=1.29 as=0.145 ps=1.29 w=1 l=0.5
X154 VDD.t308 pdrv1.t63 VOUT.t277 VDD.t133 sky130_fd_pr__pfet_g5v0d10v5 ad=0.145 pd=1.29 as=0.145 ps=1.29 w=1 l=0.5
X155 VOUT.t445 ndrv.t38 VSS.t99 VSS.t17 sky130_fd_pr__nfet_g5v0d10v5 ad=0.145 pd=1.29 as=0.145 ps=1.29 w=1 l=0.5
X156 VDD.t412 pdrv2.t47 VOUT.t404 VDD.t187 sky130_fd_pr__pfet_g5v0d10v5 ad=0.145 pd=1.29 as=0.145 ps=1.29 w=1 l=0.5
X157 VDD.t307 pdrv1.t64 VOUT.t276 VDD.t19 sky130_fd_pr__pfet_g5v0d10v5 ad=0.145 pd=1.29 as=0.145 ps=1.29 w=1 l=0.5
X158 VDD.t305 pdrv1.t65 VOUT.t275 VDD.t27 sky130_fd_pr__pfet_g5v0d10v5 ad=0.145 pd=1.29 as=0.145 ps=1.29 w=1 l=0.5
X159 VDD.t125 pdrv2.t48 VOUT.t102 VDD.t117 sky130_fd_pr__pfet_g5v0d10v5 ad=0.145 pd=1.29 as=0.145 ps=1.29 w=1 l=0.5
X160 VOUT.t274 pdrv1.t66 VDD.t304 VDD.t15 sky130_fd_pr__pfet_g5v0d10v5 ad=0.145 pd=1.29 as=0.145 ps=1.29 w=1 l=0.5
X161 VOUT.t273 pdrv1.t67 VDD.t303 VDD.t91 sky130_fd_pr__pfet_g5v0d10v5 ad=0.145 pd=1.29 as=0.145 ps=1.29 w=1 l=0.5
X162 VOUT.t272 pdrv1.t68 VDD.t302 VDD.t78 sky130_fd_pr__pfet_g5v0d10v5 ad=0.145 pd=1.29 as=0.145 ps=1.29 w=1 l=0.5
X163 VOUT.t51 pdrv2.t49 VDD.t67 VDD.t0 sky130_fd_pr__pfet_g5v0d10v5 ad=0.145 pd=1.29 as=0.145 ps=1.29 w=1 l=0.5
X164 VSS.t98 ndrv.t39 VOUT.t444 VSS.t15 sky130_fd_pr__nfet_g5v0d10v5 ad=0.145 pd=1.29 as=0.145 ps=1.29 w=1 l=0.5
X165 VDD.t9 pdrv2.t50 VOUT.t9 VDD.t8 sky130_fd_pr__pfet_g5v0d10v5 ad=0.145 pd=1.29 as=0.145 ps=1.29 w=1 l=0.5
X166 VSS.t97 ndrv.t40 VOUT.t443 VSS.t17 sky130_fd_pr__nfet_g5v0d10v5 ad=0.145 pd=1.29 as=0.145 ps=1.29 w=1 l=0.5
X167 VOUT.t271 pdrv1.t69 VDD.t297 VDD.t135 sky130_fd_pr__pfet_g5v0d10v5 ad=0.145 pd=1.29 as=0.145 ps=1.29 w=1 l=0.5
X168 VDD.t301 pdrv1.t70 VOUT.t270 VDD.t24 sky130_fd_pr__pfet_g5v0d10v5 ad=0.145 pd=1.29 as=0.29 ps=2.58 w=1 l=0.5
X169 VOUT.t269 pdrv1.t71 VDD.t300 VDD.t72 sky130_fd_pr__pfet_g5v0d10v5 ad=0.145 pd=1.29 as=0.145 ps=1.29 w=1 l=0.5
X170 VDD.t299 pdrv1.t72 VOUT.t268 VDD.t61 sky130_fd_pr__pfet_g5v0d10v5 ad=0.145 pd=1.29 as=0.145 ps=1.29 w=1 l=0.5
X171 VOUT.t267 pdrv1.t73 VDD.t298 VDD.t70 sky130_fd_pr__pfet_g5v0d10v5 ad=0.145 pd=1.29 as=0.145 ps=1.29 w=1 l=0.5
X172 VOUT.t266 pdrv1.t74 VDD.t296 VDD.t88 sky130_fd_pr__pfet_g5v0d10v5 ad=0.145 pd=1.29 as=0.145 ps=1.29 w=1 l=0.5
X173 VOUT.t265 pdrv1.t75 VDD.t295 VDD.t13 sky130_fd_pr__pfet_g5v0d10v5 ad=0.145 pd=1.29 as=0.145 ps=1.29 w=1 l=0.5
X174 VSS.t96 ndrv.t41 VOUT.t434 VSS.t17 sky130_fd_pr__nfet_g5v0d10v5 ad=0.145 pd=1.29 as=0.145 ps=1.29 w=1 l=0.5
X175 VDD.t127 pdrv2.t51 VOUT.t104 VDD.t11 sky130_fd_pr__pfet_g5v0d10v5 ad=0.145 pd=1.29 as=0.145 ps=1.29 w=1 l=0.5
X176 VDD.t294 pdrv1.t76 VOUT.t264 VDD.t29 sky130_fd_pr__pfet_g5v0d10v5 ad=0.145 pd=1.29 as=0.145 ps=1.29 w=1 l=0.5
X177 VDD.t466 pdrv2.t52 VOUT.t513 VDD.t129 sky130_fd_pr__pfet_g5v0d10v5 ad=0.145 pd=1.29 as=0.145 ps=1.29 w=1 l=0.5
X178 VDD.t106 pdrv2.t53 VOUT.t85 VDD.t105 sky130_fd_pr__pfet_g5v0d10v5 ad=0.145 pd=1.29 as=0.145 ps=1.29 w=1 l=0.5
X179 VOUT.t137 ndrv.t42 VSS.t95 VSS.t17 sky130_fd_pr__nfet_g5v0d10v5 ad=0.145 pd=1.29 as=0.145 ps=1.29 w=1 l=0.5
X180 VOUT.t138 ndrv.t43 VSS.t94 VSS.t23 sky130_fd_pr__nfet_g5v0d10v5 ad=0.145 pd=1.29 as=0.145 ps=1.29 w=1 l=0.5
X181 VDD.t293 pdrv1.t77 VOUT.t263 VDD.t93 sky130_fd_pr__pfet_g5v0d10v5 ad=0.145 pd=1.29 as=0.145 ps=1.29 w=1 l=0.5
X182 VSS.t93 ndrv.t44 VOUT.t10 VSS.t15 sky130_fd_pr__nfet_g5v0d10v5 ad=0.145 pd=1.29 as=0.145 ps=1.29 w=1 l=0.5
X183 VDD.t292 pdrv1.t78 VOUT.t262 VDD.t45 sky130_fd_pr__pfet_g5v0d10v5 ad=0.145 pd=1.29 as=0.145 ps=1.29 w=1 l=0.5
X184 VDD.t431 pdrv2.t54 VOUT.t441 VDD.t110 sky130_fd_pr__pfet_g5v0d10v5 ad=0.145 pd=1.29 as=0.145 ps=1.29 w=1 l=0.5
X185 VOUT.t261 pdrv1.t79 VDD.t291 VDD.t76 sky130_fd_pr__pfet_g5v0d10v5 ad=0.145 pd=1.29 as=0.145 ps=1.29 w=1 l=0.5
X186 VDD.t413 pdrv2.t55 VOUT.t405 VDD.t187 sky130_fd_pr__pfet_g5v0d10v5 ad=0.145 pd=1.29 as=0.145 ps=1.29 w=1 l=0.5
X187 VSS.t92 ndrv.t45 VOUT.t515 VSS.t17 sky130_fd_pr__nfet_g5v0d10v5 ad=0.145 pd=1.29 as=0.145 ps=1.29 w=1 l=0.5
X188 VSS.t91 ndrv.t46 VOUT.t514 VSS.t15 sky130_fd_pr__nfet_g5v0d10v5 ad=0.145 pd=1.29 as=0.145 ps=1.29 w=1 l=0.5
X189 VOUT.t19 pdrv2.t56 VDD.t18 VDD.t17 sky130_fd_pr__pfet_g5v0d10v5 ad=0.145 pd=1.29 as=0.145 ps=1.29 w=1 l=0.5
X190 VOUT.t11 ndrv.t47 VSS.t90 VSS.t23 sky130_fd_pr__nfet_g5v0d10v5 ad=0.145 pd=1.29 as=0.145 ps=1.29 w=1 l=0.5
X191 VDD.t290 pdrv1.t80 VOUT.t260 VDD.t98 sky130_fd_pr__pfet_g5v0d10v5 ad=0.145 pd=1.29 as=0.145 ps=1.29 w=1 l=0.5
X192 VOUT.t136 ndrv.t48 VSS.t89 VSS.t15 sky130_fd_pr__nfet_g5v0d10v5 ad=0.145 pd=1.29 as=0.145 ps=1.29 w=1 l=0.5
X193 VDD.t289 pdrv1.t81 VOUT.t259 VDD.t19 sky130_fd_pr__pfet_g5v0d10v5 ad=0.145 pd=1.29 as=0.145 ps=1.29 w=1 l=0.5
X194 VOUT.t258 pdrv1.t82 VDD.t288 VDD.t2 sky130_fd_pr__pfet_g5v0d10v5 ad=0.145 pd=1.29 as=0.145 ps=1.29 w=1 l=0.5
X195 VDD.t287 pdrv1.t83 VOUT.t257 VDD.t27 sky130_fd_pr__pfet_g5v0d10v5 ad=0.145 pd=1.29 as=0.145 ps=1.29 w=1 l=0.5
X196 VOUT.t50 ndrv.t49 VSS.t88 VSS.t15 sky130_fd_pr__nfet_g5v0d10v5 ad=0.145 pd=1.29 as=0.145 ps=1.29 w=1 l=0.5
X197 VOUT.t34 pdrv2.t57 VDD.t44 VDD.t42 sky130_fd_pr__pfet_g5v0d10v5 ad=0.145 pd=1.29 as=0.145 ps=1.29 w=1 l=0.5
X198 VOUT.t56 pdrv2.t58 VDD.t69 VDD.t33 sky130_fd_pr__pfet_g5v0d10v5 ad=0.145 pd=1.29 as=0.145 ps=1.29 w=1 l=0.5
X199 VOUT.t35 ndrv.t50 VSS.t87 VSS.t15 sky130_fd_pr__nfet_g5v0d10v5 ad=0.145 pd=1.29 as=0.145 ps=1.29 w=1 l=0.5
X200 nbias.t5 nbias.t4 VSS.t6 VSS.t5 sky130_fd_pr__nfet_g5v0d10v5 ad=0.145 pd=1.29 as=0.29 ps=2.58 w=1 l=0.5
X201 VOUT.t256 pdrv1.t84 VDD.t286 VDD.t72 sky130_fd_pr__pfet_g5v0d10v5 ad=0.145 pd=1.29 as=0.145 ps=1.29 w=1 l=0.5
X202 VDD.t285 pdrv1.t85 VOUT.t255 VDD.t61 sky130_fd_pr__pfet_g5v0d10v5 ad=0.145 pd=1.29 as=0.145 ps=1.29 w=1 l=0.5
X203 VDD.t95 pdrv2.t59 VOUT.t75 VDD.t21 sky130_fd_pr__pfet_g5v0d10v5 ad=0.145 pd=1.29 as=0.145 ps=1.29 w=1 l=0.5
X204 VDD.t68 pdrv2.t60 VOUT.t52 VDD.t8 sky130_fd_pr__pfet_g5v0d10v5 ad=0.145 pd=1.29 as=0.145 ps=1.29 w=1 l=0.5
X205 VOUT.t254 pdrv1.t86 VDD.t284 VDD.t88 sky130_fd_pr__pfet_g5v0d10v5 ad=0.145 pd=1.29 as=0.145 ps=1.29 w=1 l=0.5
X206 VOUT.t485 pdrv2.t61 VDD.t438 VDD.t83 sky130_fd_pr__pfet_g5v0d10v5 ad=0.145 pd=1.29 as=0.145 ps=1.29 w=1 l=0.5
X207 VDD.t283 pdrv1.t87 VOUT.t253 VDD.t24 sky130_fd_pr__pfet_g5v0d10v5 ad=0.145 pd=1.29 as=0.29 ps=2.58 w=1 l=0.5
X208 VOUT.t252 pdrv1.t88 VDD.t282 VDD.t13 sky130_fd_pr__pfet_g5v0d10v5 ad=0.145 pd=1.29 as=0.145 ps=1.29 w=1 l=0.5
X209 VDD.t126 pdrv2.t62 VOUT.t103 VDD.t11 sky130_fd_pr__pfet_g5v0d10v5 ad=0.145 pd=1.29 as=0.145 ps=1.29 w=1 l=0.5
X210 VOUT.t251 pdrv1.t89 VDD.t281 VDD.t70 sky130_fd_pr__pfet_g5v0d10v5 ad=0.145 pd=1.29 as=0.145 ps=1.29 w=1 l=0.5
X211 VDD.t130 pdrv2.t63 VOUT.t106 VDD.t129 sky130_fd_pr__pfet_g5v0d10v5 ad=0.145 pd=1.29 as=0.145 ps=1.29 w=1 l=0.5
X212 VOUT.t402 ndrv.t51 VSS.t86 VSS.t15 sky130_fd_pr__nfet_g5v0d10v5 ad=0.145 pd=1.29 as=0.145 ps=1.29 w=1 l=0.5
X213 VOUT.t250 pdrv1.t90 VDD.t280 VDD.t0 sky130_fd_pr__pfet_g5v0d10v5 ad=0.145 pd=1.29 as=0.145 ps=1.29 w=1 l=0.5
X214 VDD.t371 pdrv2.t64 VOUT.t343 VDD.t110 sky130_fd_pr__pfet_g5v0d10v5 ad=0.145 pd=1.29 as=0.145 ps=1.29 w=1 l=0.5
X215 VOUT.t60 ndrv.t52 VSS.t85 VSS.t17 sky130_fd_pr__nfet_g5v0d10v5 ad=0.145 pd=1.29 as=0.145 ps=1.29 w=1 l=0.5
X216 VOUT.t440 pdrv2.t65 VDD.t430 VDD.t6 sky130_fd_pr__pfet_g5v0d10v5 ad=0.29 pd=2.58 as=0.145 ps=1.29 w=1 l=0.5
X217 VDD.t279 pdrv1.t91 VOUT.t249 VDD.t143 sky130_fd_pr__pfet_g5v0d10v5 ad=0.145 pd=1.29 as=0.145 ps=1.29 w=1 l=0.5
X218 VSS.t84 ndrv.t53 VOUT.t0 VSS.t15 sky130_fd_pr__nfet_g5v0d10v5 ad=0.145 pd=1.29 as=0.145 ps=1.29 w=1 l=0.5
X219 VOUT.t248 pdrv1.t92 VDD.t278 VDD.t76 sky130_fd_pr__pfet_g5v0d10v5 ad=0.145 pd=1.29 as=0.145 ps=1.29 w=1 l=0.5
X220 VDD.t277 pdrv1.t93 VOUT.t247 VDD.t45 sky130_fd_pr__pfet_g5v0d10v5 ad=0.145 pd=1.29 as=0.145 ps=1.29 w=1 l=0.5
X221 VDD.t276 pdrv1.t94 VOUT.t246 VDD.t133 sky130_fd_pr__pfet_g5v0d10v5 ad=0.145 pd=1.29 as=0.145 ps=1.29 w=1 l=0.5
X222 VOUT.t349 pdrv2.t66 VDD.t373 VDD.t17 sky130_fd_pr__pfet_g5v0d10v5 ad=0.145 pd=1.29 as=0.145 ps=1.29 w=1 l=0.5
X223 VDD.t408 pdrv2.t67 VOUT.t393 VDD.t187 sky130_fd_pr__pfet_g5v0d10v5 ad=0.145 pd=1.29 as=0.145 ps=1.29 w=1 l=0.5
X224 VSS.t83 ndrv.t54 VOUT.t435 VSS.t15 sky130_fd_pr__nfet_g5v0d10v5 ad=0.145 pd=1.29 as=0.145 ps=1.29 w=1 l=0.5
X225 VOUT.t32 pdrv2.t68 VDD.t43 VDD.t42 sky130_fd_pr__pfet_g5v0d10v5 ad=0.145 pd=1.29 as=0.145 ps=1.29 w=1 l=0.5
X226 VOUT.t436 ndrv.t55 VSS.t82 VSS.t17 sky130_fd_pr__nfet_g5v0d10v5 ad=0.145 pd=1.29 as=0.145 ps=1.29 w=1 l=0.5
X227 VDD.t158 a_n1922_640# a_n1922_640# VDD.t157 sky130_fd_pr__pfet_g5v0d10v5 ad=0.145 pd=1.29 as=0.29 ps=2.58 w=1 l=0.5
X228 VOUT.t245 pdrv1.t95 VDD.t275 VDD.t135 sky130_fd_pr__pfet_g5v0d10v5 ad=0.145 pd=1.29 as=0.145 ps=1.29 w=1 l=0.5
X229 VDD.t274 pdrv1.t96 VOUT.t244 VDD.t19 sky130_fd_pr__pfet_g5v0d10v5 ad=0.145 pd=1.29 as=0.145 ps=1.29 w=1 l=0.5
X230 VDD.t273 pdrv1.t97 VOUT.t243 VDD.t27 sky130_fd_pr__pfet_g5v0d10v5 ad=0.145 pd=1.29 as=0.145 ps=1.29 w=1 l=0.5
X231 VDD.t422 pdrv2.t69 VOUT.t422 VDD.t117 sky130_fd_pr__pfet_g5v0d10v5 ad=0.145 pd=1.29 as=0.145 ps=1.29 w=1 l=0.5
X232 a_n551_n345# a_n551_n345# VSS.t4 VSS.t1 sky130_fd_pr__nfet_g5v0d10v5 ad=0.29 pd=2.58 as=0.29 ps=2.58 w=1 l=0.5
X233 VOUT.t242 pdrv1.t98 VDD.t272 VDD.t15 sky130_fd_pr__pfet_g5v0d10v5 ad=0.145 pd=1.29 as=0.145 ps=1.29 w=1 l=0.5
X234 VSS.t81 ndrv.t56 VOUT.t84 VSS.t15 sky130_fd_pr__nfet_g5v0d10v5 ad=0.145 pd=1.29 as=0.145 ps=1.29 w=1 l=0.5
X235 VDD.t107 pdrv2.t70 VOUT.t86 VDD.t21 sky130_fd_pr__pfet_g5v0d10v5 ad=0.145 pd=1.29 as=0.145 ps=1.29 w=1 l=0.5
X236 VDD.t271 pdrv1.t99 VOUT.t241 VDD.t93 sky130_fd_pr__pfet_g5v0d10v5 ad=0.145 pd=1.29 as=0.145 ps=1.29 w=1 l=0.5
X237 VOUT.t101 pdrv2.t71 VDD.t124 VDD.t80 sky130_fd_pr__pfet_g5v0d10v5 ad=0.145 pd=1.29 as=0.145 ps=1.29 w=1 l=0.5
X238 VSS.t80 ndrv.t57 VOUT.t16 VSS.t23 sky130_fd_pr__nfet_g5v0d10v5 ad=0.145 pd=1.29 as=0.145 ps=1.29 w=1 l=0.5
X239 VOUT.t41 pdrv2.t72 VDD.t51 VDD.t50 sky130_fd_pr__pfet_g5v0d10v5 ad=0.145 pd=1.29 as=0.145 ps=1.29 w=1 l=0.5
X240 VDD.t112 pdrv2.t73 VOUT.t91 VDD.t8 sky130_fd_pr__pfet_g5v0d10v5 ad=0.145 pd=1.29 as=0.145 ps=1.29 w=1 l=0.5
X241 VOUT.t240 pdrv1.t100 VDD.t270 VDD.t72 sky130_fd_pr__pfet_g5v0d10v5 ad=0.145 pd=1.29 as=0.145 ps=1.29 w=1 l=0.5
X242 VDD.t269 pdrv1.t101 VOUT.t239 VDD.t61 sky130_fd_pr__pfet_g5v0d10v5 ad=0.145 pd=1.29 as=0.145 ps=1.29 w=1 l=0.5
X243 VOUT.t238 pdrv1.t102 VDD.t268 VDD.t88 sky130_fd_pr__pfet_g5v0d10v5 ad=0.145 pd=1.29 as=0.145 ps=1.29 w=1 l=0.5
X244 VDD.t433 pdrv2.t74 VOUT.t463 VDD.t47 sky130_fd_pr__pfet_g5v0d10v5 ad=0.145 pd=1.29 as=0.145 ps=1.29 w=1 l=0.5
X245 VOUT.t237 pdrv1.t103 VDD.t267 VDD.t13 sky130_fd_pr__pfet_g5v0d10v5 ad=0.145 pd=1.29 as=0.145 ps=1.29 w=1 l=0.5
X246 VOUT.t8 pdrv2.t75 VDD.t7 VDD.t6 sky130_fd_pr__pfet_g5v0d10v5 ad=0.29 pd=2.58 as=0.145 ps=1.29 w=1 l=0.5
X247 VOUT.t398 ndrv.t58 VSS.t79 VSS.t23 sky130_fd_pr__nfet_g5v0d10v5 ad=0.145 pd=1.29 as=0.145 ps=1.29 w=1 l=0.5
X248 VDD.t375 pdrv2.t76 VOUT.t351 VDD.t105 sky130_fd_pr__pfet_g5v0d10v5 ad=0.145 pd=1.29 as=0.145 ps=1.29 w=1 l=0.5
X249 VDD.t266 pdrv1.t104 VOUT.t236 VDD.t143 sky130_fd_pr__pfet_g5v0d10v5 ad=0.145 pd=1.29 as=0.145 ps=1.29 w=1 l=0.5
X250 VDD.t428 pdrv2.t77 VOUT.t430 VDD.t110 sky130_fd_pr__pfet_g5v0d10v5 ad=0.145 pd=1.29 as=0.145 ps=1.29 w=1 l=0.5
X251 VSS.t78 ndrv.t59 VOUT.t108 VSS.t15 sky130_fd_pr__nfet_g5v0d10v5 ad=0.145 pd=1.29 as=0.145 ps=1.29 w=1 l=0.5
X252 VOUT.t235 pdrv1.t105 VDD.t265 VDD.t76 sky130_fd_pr__pfet_g5v0d10v5 ad=0.145 pd=1.29 as=0.145 ps=1.29 w=1 l=0.5
X253 VDD.t264 pdrv1.t106 VOUT.t234 VDD.t133 sky130_fd_pr__pfet_g5v0d10v5 ad=0.145 pd=1.29 as=0.145 ps=1.29 w=1 l=0.5
X254 VDD.t263 pdrv1.t107 VOUT.t233 VDD.t11 sky130_fd_pr__pfet_g5v0d10v5 ad=0.145 pd=1.29 as=0.145 ps=1.29 w=1 l=0.5
X255 VOUT.t353 pdrv2.t78 VDD.t377 VDD.t115 sky130_fd_pr__pfet_g5v0d10v5 ad=0.145 pd=1.29 as=0.145 ps=1.29 w=1 l=0.5
X256 VDD.t432 pdrv2.t79 VOUT.t462 VDD.t4 sky130_fd_pr__pfet_g5v0d10v5 ad=0.145 pd=1.29 as=0.145 ps=1.29 w=1 l=0.5
X257 VDD.t262 pdrv1.t108 VOUT.t232 VDD.t129 sky130_fd_pr__pfet_g5v0d10v5 ad=0.145 pd=1.29 as=0.145 ps=1.29 w=1 l=0.5
X258 VDD.t388 pdrv2.t80 VOUT.t368 VDD.t187 sky130_fd_pr__pfet_g5v0d10v5 ad=0.145 pd=1.29 as=0.145 ps=1.29 w=1 l=0.5
X259 VDD.t381 pdrv2.t81 VOUT.t358 VDD.t117 sky130_fd_pr__pfet_g5v0d10v5 ad=0.145 pd=1.29 as=0.145 ps=1.29 w=1 l=0.5
X260 VOUT.t132 pdrv2.t82 VDD.t165 VDD.t42 sky130_fd_pr__pfet_g5v0d10v5 ad=0.145 pd=1.29 as=0.145 ps=1.29 w=1 l=0.5
X261 VOUT.t437 ndrv.t60 VSS.t77 VSS.t23 sky130_fd_pr__nfet_g5v0d10v5 ad=0.145 pd=1.29 as=0.145 ps=1.29 w=1 l=0.5